data/pglib_opf_case197_snem_storage.m
%%%%%%%%%%%%%%%%%%%%%%%%%%%%%%%%%%%%%%%%%%%%%%%%%%%%%%%%%%%%%%%%%%%%%%%%%%%
%%%%                                                                  %%%%%
%%%%    IEEE PES Power Grid Library - Optimal Power Flow - v23.07     %%%%%
%%%%          (https://github.com/power-grid-lib/pglib-opf)           %%%%%
%%%%               Benchmark Group - Typical Operations               %%%%%
%%%%                         23 - July - 2023                         %%%%%
%%%%                                                                  %%%%%
%%%%%%%%%%%%%%%%%%%%%%%%%%%%%%%%%%%%%%%%%%%%%%%%%%%%%%%%%%%%%%%%%%%%%%%%%%%
%
%   Optimal Power Flow data for the Synthetic National Electricity Market (SNEM)
%   Australia - Tasmania subnetwork.
%
%   This dataset is derived by complementing and extending the S-NEM2300bus
%   benchmark data and software as part the following works:
%      - F. Arraño-Vargas and G. Konstantinou, "Modular Design and Real-Time
%        Simulators Toward Power System Digital Twins Implementation," in IEEE
%        Transactions on Industrial Informatics, doi: 10.1109/TII.2022.3178713
%      - F. Arraño-Vargas and G. Konstantinou, "Synthetic Grid Modeling for
%        Real-Time Simulations," 2021 IEEE PES Innovative Smart Grid
%        Technologies - Asia (ISGT Asia), 2021,
%        doi: 10.1109/ISGTAsia49270.2021.9715654
%
%   A technical report about this dataset is available at:
%   https://arxiv.org/abs/2306.08176
%
%   Copyright (c) 2023 by Rahmat Heidari (rahmat.heidarihaei@csiro.au)
%   Licensed under the Creative Commons Attribution 4.0
%   International license, http://creativecommons.org/licenses/by/4.0/
%
% Modified to have additional storage capacity and increased gencost
function mpc = pglib_opf_case197_snem
mpc.version = '2';
mpc.baseMVA = 100.0;

%% bus data
%	bus_i	type	Pd	Qd	Gs	Bs	area	Vm	Va	baseKV	zone	Vmax	Vmin
mpc.bus = [
	2112	 1	 -18.456624726	 0.0	 0.0	 10.7958302228	 5	    1.00000	    0.00000	 33.0	 1	    1.10000	    0.90000;
	2114	 2	 0.0	 0.0	 0.0	 0.0	 5	    1.00000	    0.00000	 13.8	 1	    1.10000	    0.90000;
	2115	 2	 0.0	 0.0	 0.0	 0.0	 5	    1.00000	    0.00000	 13.8	 1	    1.10000	    0.90000;
	2116	 2	 0.0	 0.0	 0.0	 0.0	 5	    1.00000	    0.00000	 13.8	 1	    1.10000	    0.90000;
	2117	 2	 0.0	 0.0	 0.0	 0.0	 5	    1.00000	    0.00000	 11.0	 1	    1.10000	    0.90000;
	2118	 2	 1.43784302386	 0.0	 0.0	 0.0	 5	    1.00000	    0.00000	 13.8	 1	    1.10000	    0.90000;
	2119	 2	 0.0	 0.0	 0.0	 0.0	 5	    1.00000	    0.00000	 11.0	 1	    1.10000	    0.90000;
	2120	 1	 0.0	 0.0	 0.0	 0.0	 5	    1.00000	    0.00000	 11.5	 1	    1.10000	    0.90000;
	2121	 1	 0.0	 0.0	 0.0	 0.0	 5	    1.00000	    0.00000	 11.5	 1	    1.10000	    0.90000;
	2122	 1	 0.0	 0.0	 0.0	 0.0	 5	    1.00000	    0.00000	 11.5	 1	    1.10000	    0.90000;
	2123	 2	 0.0	 0.0	 0.0	 0.0	 5	    1.00000	    0.00000	 11.5	 1	    1.10000	    0.90000;
	2124	 2	 5.34111425835	 1.84528285785	 0.0	 0.0	 5	    1.00000	    0.00000	 14.5	 1	    1.10000	    0.90000;
	2125	 2	 0.0	 0.0	 0.0	 0.0	 5	    1.00000	    0.00000	 13.2	 1	    1.10000	    0.90000;
	2126	 2	 0.0	 0.0	 0.0	 0.0	 5	    1.00000	    0.00000	 11.0	 1	    1.10000	    0.90000;
	2127	 2	 0.0	 0.0	 0.0	 0.0	 5	    1.00000	    0.00000	 11.0	 1	    1.10000	    0.90000;
	2128	 2	 0.0	 0.0	 0.0	 0.0	 5	    1.00000	    0.00000	 11.0	 1	    1.10000	    0.90000;
	2129	 2	 0.0	 0.0	 0.0	 0.0	 5	    1.00000	    0.00000	 11.0	 1	    1.10000	    0.90000;
	2130	 2	 0.0	 0.0	 0.0	 0.0	 5	    1.00000	    0.00000	 11.0	 1	    1.10000	    0.90000;
	2131	 2	 0.0	 0.0	 0.0	 0.0	 5	    1.00000	    0.00000	 11.0	 1	    1.10000	    0.90000;
	2132	 2	 0.0	 0.0	 0.0	 0.0	 5	    1.00000	    0.00000	 11.0	 1	    1.10000	    0.90000;
	2133	 2	 0.0	 0.0	 0.0	 0.0	 5	    1.00000	    0.00000	 11.0	 1	    1.10000	    0.90000;
	2134	 2	 0.0	 0.0	 0.0	 0.0	 5	    1.00000	    0.00000	 18.0	 1	    1.10000	    0.90000;
	2135	 2	 0.0	 0.0	 0.0	 0.0	 5	    1.00000	    0.00000	 18.0	 1	    1.10000	    0.90000;
	2136	 3	 0.0	 0.0	 0.0	 0.0	 5	    1.00000	    0.00000	 18.0	 1	    1.10000	    0.90000;
	2137	 1	 0.0	 0.0	 0.0	 0.0	 5	    1.00000	    0.00000	 6.6	 1	    1.10000	    0.90000;
	2138	 2	 0.0	 0.0	 0.0	 0.0	 5	    1.00000	    0.00000	 11.0	 1	    1.10000	    0.90000;
	2139	 2	 0.0	 0.0	 0.0	 0.0	 5	    1.00000	    0.00000	 11.0	 1	    1.10000	    0.90000;
	2140	 2	 0.0	 0.0	 0.0	 0.0	 5	    1.00000	    0.00000	 16.0	 1	    1.10000	    0.90000;
	2141	 1	 0.0	 0.0	 0.0	 0.0	 5	    1.00000	    0.00000	 16.0	 1	    1.10000	    0.90000;
	2142	 2	 0.0	 0.0	 0.0	 0.0	 5	    1.00000	    0.00000	 16.0	 1	    1.10000	    0.90000;
	2143	 2	 0.0	 0.0	 0.0	 0.0	 5	    1.00000	    0.00000	 16.0	 1	    1.10000	    0.90000;
	2144	 2	 0.0	 0.0	 0.0	 0.0	 5	    1.00000	    0.00000	 16.0	 1	    1.10000	    0.90000;
	2145	 1	 0.0	 0.0	 0.0	 0.0	 5	    1.00000	    0.00000	 16.0	 1	    1.10000	    0.90000;
	2146	 1	 -7.48757228344	 0.0	 0.0	 0.0	 5	    1.00000	    0.00000	 0.69	 1	    1.10000	    0.90000;
	2147	 1	 0.0	 0.0	 0.0	 0.0	 5	    1.00000	    0.00000	 22.0	 1	    1.10000	    0.90000;
	2148	 2	 0.0	 0.0	 0.0	 0.0	 5	    1.00000	    0.00000	 1.0	 1	    1.10000	    0.90000;
	2149	 1	 0.0	 0.0	 0.0	 -5.70733361581	 5	    1.00000	    0.00000	 13.8	 1	    1.10000	    0.90000;
	2150	 1	 0.0	 0.0	 0.0	 -6.03779546404	 5	    1.00000	    0.00000	 13.8	 1	    1.10000	    0.90000;
	2152	 1	 0.0	 0.0	 0.0	 0.0	 5	    1.00000	    0.00000	 110.0	 1	    1.10000	    0.90000;
	2153	 1	 0.0	 0.0	 0.0	 0.0	 5	    1.00000	    0.00000	 110.0	 1	    1.10000	    0.90000;
	2155	 1	 0.0	 0.0	 0.0	 0.0	 5	    1.00000	    0.00000	 110.0	 1	    1.10000	    0.90000;
	2156	 1	 0.0	 0.0	 0.0	 0.0	 5	    1.00000	    0.00000	 110.0	 1	    1.10000	    0.90000;
	2157	 1	 0.0	 0.0	 0.0	 0.0	 5	    1.00000	    0.00000	 110.0	 1	    1.10000	    0.90000;
	2158	 1	 0.0	 0.0	 0.0	 0.0	 5	    1.00000	    0.00000	 110.0	 1	    1.10000	    0.90000;
	2160	 1	 0.0	 0.0	 0.0	 0.0	 5	    1.00000	    0.00000	 110.0	 1	    1.10000	    0.90000;
	2161	 1	 0.0	 0.0	 0.0	 0.0	 5	    1.00000	    0.00000	 110.0	 1	    1.10000	    0.90000;
	2162	 1	 0.0	 0.0	 0.0	 0.0	 5	    1.00000	    0.00000	 110.0	 1	    1.10000	    0.90000;
	2163	 1	 0.0	 0.0	 0.0	 0.0	 5	    1.00000	    0.00000	 110.0	 1	    1.10000	    0.90000;
	2164	 1	 0.0	 0.0	 0.0	 30.2475361833	 5	    1.00000	    0.00000	 110.0	 1	    1.10000	    0.90000;
	2165	 1	 0.0	 0.0	 0.0	 0.0	 5	    1.00000	    0.00000	 110.0	 1	    1.10000	    0.90000;
	2166	 1	 0.0	 0.0	 0.0	 29.8942327662	 5	    1.00000	    0.00000	 110.0	 1	    1.10000	    0.90000;
	2167	 1	 0.0	 0.0	 0.0	 0.0	 5	    1.00000	    0.00000	 110.0	 1	    1.10000	    0.90000;
	2168	 1	 0.0	 0.0	 0.0	 0.0	 5	    1.00000	    0.00000	 110.0	 1	    1.10000	    0.90000;
	2169	 1	 0.0	 0.0	 0.0	 0.0	 5	    1.00000	    0.00000	 110.0	 1	    1.10000	    0.90000;
	2170	 1	 0.0	 0.0	 0.0	 0.0	 5	    1.00000	    0.00000	 110.0	 1	    1.10000	    0.90000;
	2171	 1	 0.0	 0.0	 0.0	 0.0	 5	    1.00000	    0.00000	 110.0	 1	    1.10000	    0.90000;
	2172	 1	 0.0	 0.0	 0.0	 0.0	 5	    1.00000	    0.00000	 110.0	 1	    1.10000	    0.90000;
	2173	 1	 0.0	 0.0	 0.0	 27.5769489619	 5	    1.00000	    0.00000	 110.0	 1	    1.10000	    0.90000;
	2174	 1	 0.0	 0.0	 0.0	 0.0	 5	    1.00000	    0.00000	 110.0	 1	    1.10000	    0.90000;
	2175	 1	 109.560738771	 5.56446601437	 0.0	 0.0	 5	    1.00000	    0.00000	 110.0	 1	    1.10000	    0.90000;
	2176	 1	 0.0	 0.0	 0.0	 0.0	 5	    1.00000	    0.00000	 110.0	 1	    1.10000	    0.90000;
	2177	 1	 0.0	 0.0	 0.0	 0.0	 5	    1.00000	    0.00000	 110.0	 1	    1.10000	    0.90000;
	2178	 1	 0.0	 0.0	 0.0	 0.0	 5	    1.00000	    0.00000	 110.0	 1	    1.10000	    0.90000;
	2180	 1	 0.0	 0.0	 0.0	 0.0	 5	    1.00000	    0.00000	 110.0	 1	    1.10000	    0.90000;
	2183	 1	 0.0	 0.0	 0.0	 0.0	 5	    1.00000	    0.00000	 110.0	 1	    1.10000	    0.90000;
	2186	 1	 0.0	 0.0	 0.0	 0.0	 5	    1.00000	    0.00000	 110.0	 1	    1.10000	    0.90000;
	2189	 1	 0.0	 0.0	 0.0	 0.0	 5	    1.00000	    0.00000	 110.0	 1	    1.10000	    0.90000;
	2190	 1	 0.0	 0.0	 0.0	 0.0	 5	    1.00000	    0.00000	 110.0	 1	    1.10000	    0.90000;
	2192	 1	 0.0	 0.0	 0.0	 0.0	 5	    1.00000	    0.00000	 110.0	 1	    1.10000	    0.90000;
	2193	 1	 0.0	 0.0	 0.0	 0.0	 5	    1.00000	    0.00000	 110.0	 1	    1.10000	    0.90000;
	2194	 1	 0.0	 0.0	 0.0	 0.0	 5	    1.00000	    0.00000	 110.0	 1	    1.10000	    0.90000;
	2195	 1	 0.0	 0.0	 0.0	 39.4429057464	 5	    1.00000	    0.00000	 110.0	 1	    1.10000	    0.90000;
	2198	 1	 0.0	 0.0	 0.0	 0.0	 5	    1.00000	    0.00000	 110.0	 1	    1.10000	    0.90000;
	2199	 1	 4.14840343669	 1.22681196274	 0.0	 0.0	 5	    1.00000	    0.00000	 33.0	 1	    1.10000	    0.90000;
	2200	 1	 0.0	 0.0	 0.0	 0.0	 5	    1.00000	    0.00000	 110.0	 1	    1.10000	    0.90000;
	2201	 1	 0.0	 0.0	 0.0	 0.0	 5	    1.00000	    0.00000	 110.0	 1	    1.10000	    0.90000;
	2202	 1	 0.0	 0.0	 0.0	 0.0	 5	    1.00000	    0.00000	 110.0	 1	    1.10000	    0.90000;
	2203	 1	 0.0	 0.0	 0.0	 0.0	 5	    1.00000	    0.00000	 110.0	 1	    1.10000	    0.90000;
	2204	 1	 0.0	 0.0	 0.0	 0.0	 5	    1.00000	    0.00000	 110.0	 1	    1.10000	    0.90000;
	2205	 1	 0.0	 0.0	 0.0	 0.0	 5	    1.00000	    0.00000	 110.0	 1	    1.10000	    0.90000;
	2206	 1	 0.0	 0.0	 0.0	 0.0	 5	    1.00000	    0.00000	 110.0	 1	    1.10000	    0.90000;
	2207	 1	 0.0	 0.0	 0.0	 0.0	 5	    1.00000	    0.00000	 110.0	 1	    1.10000	    0.90000;
	2208	 1	 0.0	 0.0	 0.0	 0.0	 5	    1.00000	    0.00000	 110.0	 1	    1.10000	    0.90000;
	2209	 1	 0.0	 0.0	 0.0	 0.0	 5	    1.00000	    0.00000	 110.0	 1	    1.10000	    0.90000;
	2210	 1	 0.0	 0.0	 0.0	 0.0	 5	    1.00000	    0.00000	 110.0	 1	    1.10000	    0.90000;
	2212	 1	 0.0	 0.0	 0.0	 0.0	 5	    1.00000	    0.00000	 110.0	 1	    1.10000	    0.90000;
	2214	 1	 0.0	 0.0	 0.0	 0.0	 5	    1.00000	    0.00000	 110.0	 1	    1.10000	    0.90000;
	2215	 1	 0.0	 0.0	 0.0	 0.0	 5	    1.00000	    0.00000	 110.0	 1	    1.10000	    0.90000;
	2217	 1	 0.0	 0.0	 0.0	 0.0	 5	    1.00000	    0.00000	 110.0	 1	    1.10000	    0.90000;
	2219	 1	 0.0	 0.0	 0.0	 0.0	 5	    1.00000	    0.00000	 110.0	 1	    1.10000	    0.90000;
	2220	 1	 0.0	 0.0	 0.0	 0.0	 5	    1.00000	    0.00000	 110.0	 1	    1.10000	    0.90000;
	2221	 1	 25.5331817143	 4.24297217382	 0.0	 0.0	 5	    1.00000	    0.00000	 22.0	 1	    1.10000	    0.90000;
	2222	 1	 0.0	 0.0	 0.0	 0.0	 5	    1.00000	    0.00000	 110.0	 1	    1.10000	    0.90000;
	2223	 1	 0.0	 0.0	 0.0	 0.0	 5	    1.00000	    0.00000	 110.0	 1	    1.10000	    0.90000;
	2224	 1	 0.0	 0.0	 0.0	 0.0	 5	    1.00000	    0.00000	 110.0	 1	    1.10000	    0.90000;
	2225	 1	 0.0	 0.0	 0.0	 0.0	 5	    1.00000	    0.00000	 110.0	 1	    1.10000	    0.90000;
	2226	 1	 0.844463851361	 0.811486859629	 0.0	 0.0	 5	    1.00000	    0.00000	 110.0	 1	    1.10000	    0.90000;
	2227	 1	 0.0	 0.0	 0.0	 0.0	 5	    1.00000	    0.00000	 110.0	 1	    1.10000	    0.90000;
	2228	 1	 1.24574926804	 -0.664264286632	 0.0	 0.0	 5	    1.00000	    0.00000	 110.0	 1	    1.10000	    0.90000;
	2229	 1	 0.0	 0.0	 0.0	 0.0	 5	    1.00000	    0.00000	 110.0	 1	    1.10000	    0.90000;
	2231	 1	 0.0	 0.0	 0.0	 0.0	 5	    1.00000	    0.00000	 110.0	 1	    1.10000	    0.90000;
	2232	 1	 0.0	 0.0	 0.0	 0.0	 5	    1.00000	    0.00000	 110.0	 1	    1.10000	    0.90000;
	2233	 1	 0.0	 0.0	 0.0	 0.0	 5	    1.00000	    0.00000	 110.0	 1	    1.10000	    0.90000;
	2234	 1	 6.30917010283	 0.352394917171	 0.0	 0.0	 5	    1.00000	    0.00000	 33.0	 1	    1.10000	    0.90000;
	2235	 1	 6.3943493002	 0.321420691079	 0.0	 0.0	 5	    1.00000	    0.00000	 33.0	 1	    1.10000	    0.90000;
	2237	 1	 0.0	 0.0	 0.0	 0.0	 5	    1.00000	    0.00000	 110.0	 1	    1.10000	    0.90000;
	2238	 1	 0.0	 0.0	 0.0	 0.0	 5	    1.00000	    0.00000	 110.0	 1	    1.10000	    0.90000;
	2239	 1	 0.0	 0.0	 0.0	 0.0	 5	    1.00000	    0.00000	 220.0	 1	    1.10000	    0.90000;
	2240	 1	 0.0	 0.0	 0.0	 0.0	 5	    1.00000	    0.00000	 220.0	 1	    1.10000	    0.90000;
	2241	 1	 0.0	 0.0	 0.0	 0.0	 5	    1.00000	    0.00000	 220.0	 1	    1.10000	    0.90000;
	2242	 1	 0.0	 0.0	 0.0	 0.0	 5	    1.00000	    0.00000	 220.0	 1	    1.10000	    0.90000;
	2243	 1	 0.0	 0.0	 0.0	 0.0	 5	    1.00000	    0.00000	 220.0	 1	    1.10000	    0.90000;
	2244	 1	 0.0	 0.0	 0.0	 0.0	 5	    1.00000	    0.00000	 220.0	 1	    1.10000	    0.90000;
	2247	 1	 0.0	 0.0	 0.0	 0.0	 5	    1.00000	    0.00000	 220.0	 1	    1.10000	    0.90000;
	2249	 1	 0.0	 0.0	 0.0	 0.0	 5	    1.00000	    0.00000	 220.0	 1	    1.10000	    0.90000;
	2250	 2	 761.802095829	 94.3982822715	 0.0	 269.606850442	 5	    1.00000	    0.00000	 220.0	 1	    1.10000	    0.90000;
	2255	 1	 0.0	 0.0	 0.0	 0.0	 5	    1.00000	    0.00000	 220.0	 1	    1.10000	    0.90000;
	2259	 1	 0.0	 0.0	 0.0	 0.0	 5	    1.00000	    0.00000	 220.0	 1	    1.10000	    0.90000;
	2261	 1	 0.0	 0.0	 0.0	 0.0	 5	    1.00000	    0.00000	 220.0	 1	    1.10000	    0.90000;
	2262	 1	 0.0	 0.0	 0.0	 0.0	 5	    1.00000	    0.00000	 220.0	 1	    1.10000	    0.90000;
	2263	 1	 0.0	 0.0	 0.0	 0.0	 5	    1.00000	    0.00000	 220.0	 1	    1.10000	    0.90000;
	2268	 1	 0.0	 0.0	 0.0	 0.0	 5	    1.00000	    0.00000	 220.0	 1	    1.10000	    0.90000;
	2269	 1	 0.0	 0.0	 0.0	 0.0	 5	    1.00000	    0.00000	 220.0	 1	    1.10000	    0.90000;
	2270	 1	 0.0	 0.0	 0.0	 0.0	 5	    1.00000	    0.00000	 220.0	 1	    1.10000	    0.90000;
	2272	 1	 0.100036499291	 -0.133309902946	 0.0	 0.0	 5	    1.00000	    0.00000	 11.0	 1	    1.10000	    0.90000;
	2273	 1	 19.957788692	 4.78594959717	 0.0	 0.0	 5	    1.00000	    0.00000	 22.0	 1	    1.10000	    0.90000;
	2274	 1	 14.1049076988	 9.04776996574	 0.0	 0.0	 5	    1.00000	    0.00000	 6.6	 1	    1.10000	    0.90000;
	2275	 1	 11.1868502881	 5.3734801524	 0.0	 0.0	 5	    1.00000	    0.00000	 6.6	 1	    1.10000	    0.90000;
	2276	 1	 1.23310786749	 0.521934969552	 0.0	 0.0	 5	    1.00000	    0.00000	 6.6	 1	    1.10000	    0.90000;
	2277	 1	 38.2656446436	 12.0837698976	 0.0	 0.0	 5	    1.00000	    0.00000	 33.0	 1	    1.10000	    0.90000;
	2278	 1	 15.3479710077	 0.179780361418	 0.0	 0.0	 5	    1.00000	    0.00000	 33.0	 1	    1.10000	    0.90000;
	2279	 1	 28.1220396346	 17.0941187588	 0.0	 0.0	 5	    1.00000	    0.00000	 44.0	 1	    1.10000	    0.90000;
	2280	 1	 2.29266869862	 -0.219341768899	 0.0	 0.0	 5	    1.00000	    0.00000	 22.0	 1	    1.10000	    0.90000;
	2281	 1	 -5.28103313928	 1.57365585479	 0.0	 0.0	 5	    1.00000	    0.00000	 11.0	 1	    1.10000	    0.90000;
	2282	 1	 0.595466476637	 0.164574361555	 0.0	 0.0	 5	    1.00000	    0.00000	 22.0	 1	    1.10000	    0.90000;
	2283	 1	 2.86565043063	 0.918062184471	 0.0	 0.0	 5	    1.00000	    0.00000	 22.0	 1	    1.10000	    0.90000;
	2284	 1	 0.102155048288	 -0.0762418273165	 0.0	 0.0	 5	    1.00000	    0.00000	 11.0	 1	    1.10000	    0.90000;
	2285	 1	 14.8939685162	 5.50440336707	 0.0	 0.0	 5	    1.00000	    0.00000	 22.0	 1	    1.10000	    0.90000;
	2286	 1	 12.7940563151	 4.23152802724	 0.0	 0.0	 5	    1.00000	    0.00000	 22.0	 1	    1.10000	    0.90000;
	2287	 1	 32.8164347707	 4.93834843893	 0.0	 0.0	 5	    1.00000	    0.00000	 22.0	 1	    1.10000	    0.90000;
	2288	 1	 4.96928669102	 2.31230359605	 0.0	 0.0	 5	    1.00000	    0.00000	 11.0	 1	    1.10000	    0.90000;
	2289	 1	 11.8889887202	 2.24300578809	 0.0	 0.0	 5	    1.00000	    0.00000	 22.0	 1	    1.10000	    0.90000;
	2290	 1	 35.35571077	 11.4391733684	 0.0	 0.0	 5	    1.00000	    0.00000	 22.0	 1	    1.10000	    0.90000;
	2291	 1	 37.0487818044	 13.5631675561	 0.0	 0.0	 5	    1.00000	    0.00000	 22.0	 1	    1.10000	    0.90000;
	2292	 1	 9.25709532036	 1.28527849578	 0.0	 0.0	 5	    1.00000	    0.00000	 22.0	 1	    1.10000	    0.90000;
	2293	 1	 6.8196875433	 1.66570804022	 0.0	 0.0	 5	    1.00000	    0.00000	 22.0	 1	    1.10000	    0.90000;
	2294	 1	 0.0	 0.0	 0.0	 0.0	 5	    1.00000	    0.00000	 22.0	 1	    1.10000	    0.90000;
	2295	 1	 1.12772044054	 -0.131104909686	 0.0	 0.0	 5	    1.00000	    0.00000	 22.0	 1	    1.10000	    0.90000;
	2296	 1	 3.91795778259	 1.12945814219	 0.0	 0.0	 5	    1.00000	    0.00000	 22.0	 1	    1.10000	    0.90000;
	2297	 1	 0.098455395028	 -0.159011451974	 0.0	 0.0	 5	    1.00000	    0.00000	 22.0	 1	    1.10000	    0.90000;
	2298	 1	 7.00533022556	 0.634266090953	 0.0	 0.0	 5	    1.00000	    0.00000	 11.0	 1	    1.10000	    0.90000;
	2299	 1	 4.76784311741	 -0.357622153863	 0.0	 0.0	 5	    1.00000	    0.00000	 11.0	 1	    1.10000	    0.90000;
	2300	 1	 6.81737639888	 1.52931806039	 0.0	 0.0	 5	    1.00000	    0.00000	 11.0	 1	    1.10000	    0.90000;
	2301	 1	 6.35761379468	 1.10483449831	 0.0	 0.0	 5	    1.00000	    0.00000	 11.0	 1	    1.10000	    0.90000;
	2302	 1	 10.5558431011	 3.5135687363	 0.0	 0.0	 5	    1.00000	    0.00000	 11.0	 1	    1.10000	    0.90000;
	2303	 1	 7.95474462004	 1.73341208709	 0.0	 0.0	 5	    1.00000	    0.00000	 11.0	 1	    1.10000	    0.90000;
	2304	 1	 2.91458506392	 -0.202324895334	 0.0	 0.0	 5	    1.00000	    0.00000	 11.0	 1	    1.10000	    0.90000;
	2305	 1	 3.20082082542	 -0.0306372322947	 0.0	 0.0	 5	    1.00000	    0.00000	 11.0	 1	    1.10000	    0.90000;
	2306	 1	 1.23069639581	 0.148527247898	 0.0	 0.0	 5	    1.00000	    0.00000	 22.0	 1	    1.10000	    0.90000;
	2307	 1	 1.22012735772	 0.141469365238	 0.0	 0.0	 5	    1.00000	    0.00000	 22.0	 1	    1.10000	    0.90000;
	2308	 1	 2.69741274876	 -0.518176212408	 0.0	 0.0	 5	    1.00000	    0.00000	 11.0	 1	    1.10000	    0.90000;
	2309	 1	 3.66248952774	 0.268230288469	 0.0	 0.0	 5	    1.00000	    0.00000	 11.0	 1	    1.10000	    0.90000;
	2310	 1	 4.3878279769	 1.24416995375	 0.0	 0.0	 5	    1.00000	    0.00000	 11.0	 1	    1.10000	    0.90000;
	2311	 1	 11.3146026349	 3.43865919711	 0.0	 0.0	 5	    1.00000	    0.00000	 11.0	 1	    1.10000	    0.90000;
	2312	 1	 3.43738724451	 1.20643423757	 0.0	 0.0	 5	    1.00000	    0.00000	 11.0	 1	    1.10000	    0.90000;
	2313	 1	 12.7508150782	 0.933697498767	 0.0	 0.0	 5	    1.00000	    0.00000	 22.0	 1	    1.10000	    0.90000;
	2314	 1	 10.6750374615	 2.72001893004	 0.0	 0.0	 5	    1.00000	    0.00000	 22.0	 1	    1.10000	    0.90000;
	2315	 1	 29.5849414279	 5.38569534337	 0.0	 0.0	 5	    1.00000	    0.00000	 22.0	 1	    1.10000	    0.90000;
	2316	 1	 5.9921608533	 2.30522543602	 0.0	 0.0	 5	    1.00000	    0.00000	 22.0	 1	    1.10000	    0.90000;
	2317	 1	 9.06709590132	 2.28521256108	 0.0	 0.0	 5	    1.00000	    0.00000	 22.0	 1	    1.10000	    0.90000;
	2318	 1	 10.3675748841	 -0.0485898785247	 0.0	 0.0	 5	    1.00000	    0.00000	 22.0	 1	    1.10000	    0.90000;
	2319	 1	 0.0	 0.0	 0.0	 0.0	 5	    1.00000	    0.00000	 22.0	 1	    1.10000	    0.90000;
	2320	 1	 16.1407656257	 3.39817422641	 0.0	 0.0	 5	    1.00000	    0.00000	 22.0	 1	    1.10000	    0.90000;
	2321	 1	 5.5121708044	 -0.297153097662	 0.0	 0.0	 5	    1.00000	    0.00000	 22.0	 1	    1.10000	    0.90000;
	2322	 1	 0.268542500051	 0.319257627793	 0.0	 0.0	 5	    1.00000	    0.00000	 11.0	 1	    1.10000	    0.90000;
	2323	 1	 0.0	 0.0	 0.0	 0.0	 5	    1.00000	    0.00000	 110.0	 1	    1.10000	    0.90000;
	2324	 1	 0.0	 0.0	 0.0	 0.0	 5	    1.00000	    0.00000	 1.0	 1	    1.10000	    0.90000;
	2325	 1	 0.0	 0.0	 0.0	 0.0	 5	    1.00000	    0.00000	 1.0	 1	    1.10000	    0.90000;
	2326	 1	 0.0	 0.0	 0.0	 0.0	 5	    1.00000	    0.00000	 1.0	 1	    1.10000	    0.90000;
	2328	 1	 0.0	 0.0	 0.0	 0.0	 5	    1.00000	    0.00000	 22.0	 1	    1.10000	    0.90000;
	2329	 2	 0.0	 0.0	 0.0	 0.0	 5	    1.00000	    0.00000	 11.0	 1	    1.10000	    0.90000;
	2330	 2	 0.0	 0.0	 0.0	 0.0	 5	    1.00000	    0.00000	 11.0	 1	    1.10000	    0.90000;
	2331	 2	 0.0	 0.0	 0.0	 0.0	 5	    1.00000	    0.00000	 11.0	 1	    1.10000	    0.90000;
	2332	 2	 0.0	 0.0	 0.0	 0.0	 5	    1.00000	    0.00000	 11.0	 1	    1.10000	    0.90000;
	2333	 2	 0.0	 0.0	 0.0	 0.0	 5	    1.00000	    0.00000	 11.0	 1	    1.10000	    0.90000;
	2334	 2	 0.0	 0.0	 0.0	 0.0	 5	    1.00000	    0.00000	 11.0	 1	    1.10000	    0.90000;
	2335	 2	 0.0	 0.0	 0.0	 0.0	 5	    1.00000	    0.00000	 11.0	 1	    1.10000	    0.90000;
	2336	 1	 32.7033081653	 10.6544866268	 0.0	 0.0	 5	    1.00000	    0.00000	 33.0	 1	    1.10000	    0.90000;
	2337	 1	 49.5337823698	 16.2479222761	 0.0	 0.0	 5	    1.00000	    0.00000	 11.0	 1	    1.10000	    0.90000;
	2338	 1	 1.71129514995	 2.64945633324	 0.0	 0.0	 5	    1.00000	    0.00000	 22.0	 1	    1.10000	    0.90000;
	2339	 1	 15.7169929211	 -4.31763789598	 0.0	 0.0	 5	    1.00000	    0.00000	 6.6	 1	    1.10000	    0.90000;
	10108	 1	 0.0	 0.0	 0.0	 0.0	 5	    1.00000	    0.00000	 110.0	 1	    1.10000	    0.90000;
	10109	 1	 0.0	 0.0	 0.0	 0.0	 5	    1.00000	    0.00000	 110.0	 1	    1.10000	    0.90000;
	10110	 1	 0.0	 0.0	 0.0	 0.0	 5	    1.00000	    0.00000	 110.0	 1	    1.10000	    0.90000;
	10111	 1	 0.0	 0.0	 0.0	 0.0	 5	    1.00000	    0.00000	 110.0	 1	    1.10000	    0.90000;
	10112	 1	 0.0	 0.0	 0.0	 0.0	 5	    1.00000	    0.00000	 110.0	 1	    1.10000	    0.90000;
	10113	 1	 0.0	 0.0	 0.0	 0.0	 5	    1.00000	    0.00000	 110.0	 1	    1.10000	    0.90000;
];

%% generator data
%	bus	Pg	Qg	Qmax	Qmin	Vg	mBase	status	Pmax	Pmin
mpc.gen = [
	2114	 75.0	 10.0	 110.0	 -90.0	 1.0	 147.696965935	 1	 150.0	 0.0;
	2115	 75.0	 5.0	 120.0	 -110.0	 1.0	 147.170128863	 1	 150.0	 0.0;
	2116	 50.0	 10.0	 60.0	 -40.0	 1.0	 99.8268229078	 1	 100.0	 0.0;
	2117	 30.0	 0.0	 20.0	 -20.0	 1.0	 59.56099006	 1	 60.0	 0.0;
	2118	 65.0	 5.0	 90.0	 -80.0	 1.0	 123.244468958	 1	 130.0	 0.0;
	2119	 20.0	 0.0	 20.0	 -20.0	 1.0	 37.8683050583	 1	 40.0	 0.0;
	2123	 40.0	 10.0	 50.0	 -30.0	 1.0	 72.6031327684	 1	 80.0	 0.0;
	2124	 100.0	 40.0	 120.0	 -40.0	 1.0	 192.647608941	 1	 200.0	 0.0;
	2125	 50.0	 25.0	 70.0	 -20.0	 1.0	 96.002555525	 1	 100.0	 0.0;
	2126	 10.0	 5.0	 20.0	 -10.0	 1.0	 16.4278021573	 1	 20.0	 0.0;
	2127	 25.0	 0.0	 20.0	 -20.0	 1.0	 40.33056631	 1	 50.0	 0.0;
	2128	 25.0	 0.0	 20.0	 -20.0	 1.0	 40.0795192	 1	 50.0	 0.0;
	2129	 20.0	 5.0	 20.0	 -10.0	 1.0	 33.6463986922	 1	 40.0	 0.0;
	2130	 20.0	 5.0	 20.0	 -10.0	 1.0	 33.3273031253	 1	 40.0	 0.0;
	2131	 20.0	 5.0	 20.0	 -10.0	 1.0	 34.2333408685	 1	 40.0	 0.0;
	2132	 20.0	 10.0	 30.0	 -10.0	 1.0	 37.7499579499	 1	 40.0	 0.0;
	2133	 30.0	 10.0	 40.0	 -20.0	 1.0	 53.9771218854	 1	 60.0	 0.0;
	2134	 85.0	 10.0	 70.0	 -50.0	 1.0	 169.17400955	 1	 170.0	 0.0;
	2135	 90.0	 5.0	 80.0	 -70.0	 1.0	 175.344738018	 1	 180.0	 0.0;
	2136	 85.0	 10.0	 80.0	 -60.0	 1.0	 168.121105693	 1	 170.0	 0.0;
	2138	 20.0	 5.0	 40.0	 -30.0	 1.0	 33.7659113865	 1	 40.0	 0.0;
	2139	 20.0	 5.0	 20.0	 -10.0	 1.0	 36.76534479	 1	 40.0	 0.0;
	2140	 35.0	 10.0	 70.0	 -50.0	 1.0	 67.9893259308	 1	 70.0	 0.0;
	2142	 35.0	 15.0	 70.0	 -40.0	 1.0	 68.3699770729	 1	 70.0	 0.0;
	2143	 35.0	 15.0	 70.0	 -40.0	 1.0	 66.635863774	 1	 70.0	 0.0;
	2144	 35.0	 15.0	 70.0	 -40.0	 1.0	 67.2894188494	 1	 70.0	 0.0;
	2148	 45.0	 -5.0	 10.0	 -20.0	 1.0	 83.725310623	 1	 90.0	 0.0;
	2329	 35.0	 5.0	 30.0	 -20.0	 1.0	 65.7624427797	 1	 70.0	 0.0;
	2330	 20.0	 5.0	 20.0	 -10.0	 1.0	 36.1447293924	 1	 40.0	 0.0;
	2331	 20.0	 0.0	 20.0	 -20.0	 1.0	 32.9465583476	 1	 40.0	 0.0;
	2332	 20.0	 -5.0	 10.0	 -20.0	 1.0	 34.0468555721	 1	 40.0	 0.0;
	2333	 10.0	 0.0	 10.0	 -10.0	 1.0	 16.3866927561	 1	 20.0	 0.0;
	2334	 20.0	 5.0	 20.0	 -10.0	 1.0	 32.5552539895	 1	 40.0	 0.0;
	2335	 20.0	 5.0	 20.0	 -10.0	 1.0	 31.9203887789	 1	 40.0	 0.0;
	2250	 275.0	 5.0	 550.0	 -540.0	 1.0	 5.43358585262	 1	 550.0	 0.0;
];

%% generator cost data
%	2	startup	shutdown	n	c(n-1)	...	c0
mpc.gencost = [
2	0.0	0.0	3	0.2	0.001000	0.000000;
2	0.0	0.0	3	0.2	0.001000	0.000000;
2	0.0	0.0	3	0.2	0.001000	0.000000;
2	0.0	0.0	3	0.2	0.001000	0.000000;
2	0.0	0.0	3	0.2	0.001000	0.000000;
2	0.0	0.0	3	0.2	0.001000	0.000000;
2	0.0	0.0	3	0.2	0.001000	0.000000;
2	100.0	0.0	3	0.2	12.021005	0.000000;
2	0.0	0.0	3	0.2	0.001000	0.000000;
2	0.0	0.0	3	0.2	0.001000	0.000000;
2	0.0	0.0	3	0.2	0.001000	0.000000;
2	0.0	0.0	3	0.2	0.001000	0.000000;
2	0.0	0.0	3	0.2	0.001000	0.000000;
2	0.0	0.0	3	0.2	0.001000	0.000000;
2	0.0	0.0	3	0.2	0.001000	0.000000;
2	0.0	0.0	3	0.2	0.001000	0.000000;
2	0.0	0.0	3	0.2	0.001000	0.000000;
2	0.0	0.0	3	0.2	0.001000	0.000000;
2	0.0	0.0	3	0.2	0.001000	0.000000;
2	0.0	0.0	3	0.2	0.001000	0.000000;
2	0.0	0.0	3	0.2	0.001000	0.000000;
2	100.0	0.0	3	0.2	12.021005	0.000000;
2	0.0	0.0	3	0.2	0.001000	0.000000;
2	0.0	0.0	3	0.2	0.001000	0.000000;
2	0.0	0.0	3	0.2	0.001000	0.000000;
2	0.0	0.0	3	0.2	0.001000	0.000000;
2	0.0	0.0	3	0.2	0.001000	0.000000;
2	0.0	0.0	3	0.2	0.001000	0.000000;
2	0.0	0.0	3	0.2	0.001000	0.000000;
2	100.0	0.0	3	0.2	12.021005	0.000000;
2	0.0	0.0	3	0.2	0.001000	0.000000;
2	0.0	0.0	3	0.2	0.001000	0.000000;
2	0.0	0.0	3	0.2	0.001000	0.000000;
2	0.0	0.0	3	0.2	0.001000	0.000000;
2	100.0	0.0	3	0.2	9.921005	0.000000;
];

%% storage data
%	bus	energy	energy_rating	charge_rating	discharge_rating	thermal_rating	qmin	qmax	r	x	standby_loss	status
mpc.storage = [
	2250	0.0	0.0	1.00	1142.7031	571.3516	411.3731	0.9	0.85	1000	-1000	1000	0.1	0.01	0	0	1;
	2175	0.0	0.0	1.00	164.3411	82.1706	59.1628	0.9	0.85	1000	-1000	1000	0.1	0.01	0	0	1;
	2337	0.0	0.0	1.00	74.3007	37.1503	26.7482	0.9	0.85	1000	-1000	1000	0.1	0.01	0	0	1;
	2277	0.0	0.0	1.00	57.3985	28.6992	20.6634	0.9	0.85	1000	-1000	1000	0.1	0.01	0	0	1;
	2291	0.0	0.0	1.00	55.5732	27.7866	20.0063	0.9	0.85	1000	-1000	1000	0.1	0.01	0	0	1;
	2290	0.0	0.0	1.00	53.0336	26.5168	19.0921	0.9	0.85	1000	-1000	1000	0.1	0.01	0	0	1;
	2287	0.0	0.0	1.00	49.2247	24.6123	17.7209	0.9	0.85	1000	-1000	1000	0.1	0.01	0	0	1;
	2336	0.0	0.0	1.00	49.0550	24.5275	17.6598	0.9	0.85	1000	-1000	1000	0.1	0.01	0	0	1;
	2315	0.0	0.0	1.00	44.3774	22.1887	15.9759	0.9	0.85	1000	-1000	1000	0.1	0.01	0	0	1;
	2279	0.0	0.0	1.00	42.1831	21.0915	15.1859	0.9	0.85	1000	-1000	1000	0.1	0.01	0	0	1;
	2221	0.0	0.0	1.00	38.2998	19.1499	13.7879	0.9	0.85	1000	-1000	1000	0.1	0.01	0	0	1;
	2273	0.0	0.0	1.00	29.9367	14.9683	10.7772	0.9	0.85	1000	-1000	1000	0.1	0.01	0	0	1;
	2320	0.0	0.0	1.00	24.2111	12.1056	8.7160	0.9	0.85	1000	-1000	1000	0.1	0.01	0	0	1;
	2339	0.0	0.0	1.00	23.5755	11.7877	8.4872	0.9	0.85	1000	-1000	1000	0.1	0.01	0	0	1;
	2278	0.0	0.0	1.00	23.0220	11.5110	8.2879	0.9	0.85	1000	-1000	1000	0.1	0.01	0	0	1;
	2285	0.0	0.0	1.00	22.3410	11.1705	8.0427	0.9	0.85	1000	-1000	1000	0.1	0.01	0	0	1;
	2274	0.0	0.0	1.00	21.1574	10.5787	7.6167	0.9	0.85	1000	-1000	1000	0.1	0.01	0	0	1;
	2286	0.0	0.0	1.00	19.1911	9.5955	6.9088	0.9	0.85	1000	-1000	1000	0.1	0.01	0	0	1;
	2313	0.0	0.0	1.00	19.1262	9.5631	6.8854	0.9	0.85	1000	-1000	1000	0.1	0.01	0	0	1;
	2289	0.0	0.0	1.00	17.8335	8.9167	6.4201	0.9	0.85	1000	-1000	1000	0.1	0.01	0	0	1;
];

%% branch data
%	fbus	tbus	r	x	b	rateA	rateB	rateC	ratio	angle	status	angmin	angmax
mpc.branch = [
	2152	 2156	 0.00834450528496	 0.0371057756822	 0.00388866725242	 160.0	 160.0	 160.0	 0.0	 0.0	 1	 -30.0	 30.0;
	2153	 2156	 0.006612602031	 0.017109146624	 0.00165633454293	 115.0	 115.0	 115.0	 0.0	 0.0	 1	 -30.0	 30.0;
	2153	 2156	 0.00550651928481	 0.0149698399927	 0.00172714817226	 119.0	 119.0	 119.0	 0.0	 0.0	 1	 -30.0	 30.0;
	2155	 2153	 0.01393972708	 0.102926742936	 0.0123074726317	 218.0	 218.0	 218.0	 0.0	 0.0	 1	 -30.0	 30.0;
	2156	 2157	 0.02545334659	 0.0721554038461	 0.00680053036105	 122.0	 122.0	 122.0	 0.0	 0.0	 1	 -30.0	 30.0;
	2157	 2172	 0.0299991099129	 0.0854487027202	 0.00844874817832	 122.0	 122.0	 122.0	 0.0	 0.0	 1	 -30.0	 30.0;
	2158	 2153	 0.0446317172529	 0.0702443516722	 0.00557138734468	 85.0	 85.0	 85.0	 0.0	 0.0	 1	 -30.0	 30.0;
	2160	 2166	 0.00221781807094	 0.0150542312874	 0.00163558931096	 207.0	 207.0	 207.0	 0.0	 0.0	 1	 -30.0	 30.0;
	2161	 2166	 0.00979486179023	 0.0249472030214	 0.00296859624928	 114.0	 114.0	 114.0	 0.0	 0.0	 1	 -30.0	 30.0;
	2161	 2167	 0.022569879982	 0.0598841777916	 0.00660973093147	 117.0	 117.0	 117.0	 0.0	 0.0	 1	 -30.0	 30.0;
	2162	 2163	 0.0368750920058	 0.0712716392955	 0.0162320841232	 97.0	 97.0	 97.0	 0.0	 0.0	 1	 -30.0	 30.0;
	2162	 2164	 0.133172727607	 0.24271488602	 0.0159793607747	 93.0	 93.0	 93.0	 0.0	 0.0	 1	 -30.0	 30.0;
	2162	 2229	 0.0125014987677	 0.0906216808787	 0.0340298995427	 215.0	 215.0	 215.0	 0.0	 0.0	 1	 -30.0	 30.0;
	2163	 2164	 0.100609148637	 0.176248238354	 0.0157835522057	 91.0	 91.0	 91.0	 0.0	 0.0	 1	 -30.0	 30.0;
	2164	 2165	 0.00386886836307	 0.0103769073008	 0.00115304896291	 118.0	 118.0	 118.0	 0.0	 0.0	 1	 -30.0	 30.0;
	2164	 2166	 0.0548456849238	 0.146051026867	 0.0158653891447	 117.0	 117.0	 117.0	 0.0	 0.0	 1	 -30.0	 30.0;
	2164	 2226	 0.0322012007642	 0.0849837029603	 0.0090492049762	 117.0	 117.0	 117.0	 0.0	 0.0	 1	 -30.0	 30.0;
	2165	 2167	 0.0326571041771	 0.0841055311883	 0.00955746842655	 115.0	 115.0	 115.0	 0.0	 0.0	 1	 -30.0	 30.0;
	2166	 2168	 0.00948450876777	 0.050407684576	 0.00622709612376	 178.0	 178.0	 178.0	 0.0	 0.0	 1	 -30.0	 30.0;
	2166	 2169	 0.0213521373288	 0.0831676316532	 0.00938905109974	 148.0	 148.0	 148.0	 0.0	 0.0	 1	 -30.0	 30.0;
	2166	 2170	 0.00648433744151	 0.0344385667948	 0.00404136947009	 178.0	 178.0	 178.0	 0.0	 0.0	 1	 -30.0	 30.0;
	2166	 2170	 0.00693898262637	 0.0326422499585	 0.00425079271419	 166.0	 166.0	 166.0	 0.0	 0.0	 1	 -30.0	 30.0;
	2168	 2169	 0.0123307894492	 0.032810616942	 0.00347130369578	 117.0	 117.0	 117.0	 0.0	 0.0	 1	 -30.0	 30.0;
	2171	 2172	 0.0301156643856	 0.0796046618723	 0.00849322719584	 117.0	 117.0	 117.0	 0.0	 0.0	 1	 -30.0	 30.0;
	2172	 2227	 0.0438537854483	 0.117773755721	 0.0107526255948	 118.0	 118.0	 118.0	 0.0	 0.0	 1	 -30.0	 30.0;
	2173	 2175	 0.003635470736	 0.00979922927223	 0.00132046023133	 118.0	 118.0	 118.0	 0.0	 0.0	 1	 -30.0	 30.0;
	2173	 2228	 0.00817779703513	 0.0166973252526	 0.0016922451392	 100.0	 100.0	 100.0	 0.0	 0.0	 1	 -30.0	 30.0;
	2174	 2175	 0.0034524341182	 0.00941777568866	 0.00106530630905	 119.0	 119.0	 119.0	 0.0	 0.0	 1	 -30.0	 30.0;
	2176	 2177	 0.00544398463072	 0.018950843333	 0.00130446062224	 138.0	 138.0	 138.0	 0.0	 0.0	 1	 -30.0	 30.0;
	2176	 2178	 0.016235662227	 0.0728054892606	 0.0019680678417	 161.0	 161.0	 161.0	 0.0	 0.0	 1	 -30.0	 30.0;
	2176	 2224	 0.0394408773044	 0.137952632759	 0.00414441901073	 138.0	 138.0	 138.0	 0.0	 0.0	 1	 -30.0	 30.0;
	2177	 2224	 0.0473672257593	 0.159966352393	 0.00395088193268	 135.0	 135.0	 135.0	 0.0	 0.0	 1	 -30.0	 30.0;
	2178	 2238	 0.0341895124321	 0.134301567013	 0.0182315273713	 148.0	 148.0	 148.0	 0.0	 0.0	 1	 -30.0	 30.0;
	2180	 2126	 0.0507059526851	 0.686745299128	 0.00135414011457	 46.0	 46.0	 46.0	 1.0	 0.0	 1	 -30.0	 30.0;
	2180	 2189	 0.0392573585555	 0.058002956482	 0.00494046371803	 82.0	 82.0	 82.0	 0.0	 0.0	 1	 -30.0	 30.0;
	2180	 2323	 0.0300776910052	 0.0518558105006	 0.00394640633369	 90.0	 90.0	 90.0	 0.0	 0.0	 1	 -30.0	 30.0;
	2183	 2217	 0.0220924302279	 0.0648336640048	 0.0060613908166	 124.0	 124.0	 124.0	 0.0	 0.0	 1	 -30.0	 30.0;
	2183	 2323	 0.0189442508494	 0.057645648069	 0.00509880770957	 127.0	 127.0	 127.0	 0.0	 0.0	 1	 -30.0	 30.0;
	2217	 2323	 0.0418895350015	 0.11629788021	 0.0109106452358	 120.0	 120.0	 120.0	 0.0	 0.0	 1	 -30.0	 30.0;
	2186	 2190	 0.0219553756497	 0.0790700124031	 0.00969959060365	 141.0	 141.0	 141.0	 0.0	 0.0	 1	 -30.0	 30.0;
	2186	 2323	 0.0932669534612	 0.18336831322	 0.0159926383185	 98.0	 98.0	 98.0	 0.0	 0.0	 1	 -30.0	 30.0;
	2186	 2190	 0.0219083921358	 0.0856977156766	 0.00959333997972	 148.0	 148.0	 148.0	 0.0	 0.0	 1	 -30.0	 30.0;
	2186	 2323	 0.0951405162859	 0.176418324059	 0.0165238766949	 94.0	 94.0	 94.0	 0.0	 0.0	 1	 -30.0	 30.0;
	2192	 2198	 0.0113070956447	 0.050853422248	 0.00663802909275	 161.0	 161.0	 161.0	 0.0	 0.0	 1	 -30.0	 30.0;
	2192	 2217	 0.0809689857371	 0.159780265158	 0.0563546512737	 98.0	 98.0	 98.0	 0.0	 0.0	 1	 -30.0	 30.0;
	2193	 2194	 0.00320447570577	 0.0137512614819	 0.00177820065775	 157.0	 157.0	 157.0	 0.0	 0.0	 1	 -30.0	 30.0;
	2193	 2194	 0.00322901010886	 0.0138602282577	 0.00163753939091	 157.0	 157.0	 157.0	 0.0	 0.0	 1	 -30.0	 30.0;
	2193	 2194	 0.00161342752121	 0.0114039842253	 0.00120377232681	 212.0	 212.0	 212.0	 0.0	 0.0	 1	 -30.0	 30.0;
	2193	 2195	 0.00466756014707	 0.0220930798219	 0.0026082038961	 166.0	 166.0	 166.0	 0.0	 0.0	 1	 -30.0	 30.0;
	2193	 2205	 0.0160258609959	 0.0445072908171	 0.00487364297231	 120.0	 120.0	 120.0	 0.0	 0.0	 1	 -30.0	 30.0;
	2193	 2206	 0.01882210075	 0.0513597795757	 0.00927028024764	 119.0	 119.0	 119.0	 0.0	 0.0	 1	 -30.0	 30.0;
	2193	 2190	 0.0205710355764	 0.0578426182695	 0.00568336299875	 121.0	 121.0	 121.0	 0.0	 0.0	 1	 -30.0	 30.0;
	2194	 2195	 0.0035544225969	 0.0115137614379	 0.00130740937202	 132.0	 132.0	 132.0	 0.0	 0.0	 1	 -30.0	 30.0;
	2194	 10112	 0.00281675531511	 0.526563840181	 0.0714626713993	 60.0	 60.0	 60.0	 0.9877	 0.0	 1	 -30.0	 30.0;
	2194	 2190	 0.021964985167	 0.0641314318582	 0.000604994296571	 124.0	 124.0	 124.0	 0.0	 0.0	 1	 -30.0	 30.0;
	2195	 2198	 0.00231737132412	 0.0100412761865	 0.00106770930917	 157.0	 157.0	 157.0	 0.0	 0.0	 1	 -30.0	 30.0;
	2198	 2203	 0.0160672604064	 0.0437558473473	 0.00468396638525	 119.0	 119.0	 119.0	 0.0	 0.0	 1	 -30.0	 30.0;
	2198	 2212	 0.0285963948401	 0.0732199230748	 0.00825107615814	 115.0	 115.0	 115.0	 0.0	 0.0	 1	 -30.0	 30.0;
	2198	 2232	 0.00410662239414	 0.0199696988206	 0.00231968507522	 169.0	 169.0	 169.0	 0.0	 0.0	 1	 -30.0	 30.0;
	2198	 2233	 0.00390492976941	 0.0187910006352	 0.00242773434621	 168.0	 168.0	 168.0	 0.0	 0.0	 1	 -30.0	 30.0;
	2200	 2232	 0.00331615708596	 0.0150896704316	 0.00191441716685	 162.0	 162.0	 162.0	 0.0	 0.0	 1	 -30.0	 30.0;
	2201	 2233	 0.00310765717618	 0.0162673099711	 0.0019262018874	 177.0	 177.0	 177.0	 0.0	 0.0	 1	 -30.0	 30.0;
	2202	 2203	 0.210973417087	 0.184205018252	 0.0149285869955	 60.0	 60.0	 60.0	 0.0	 0.0	 1	 -30.0	 30.0;
	2203	 2313	 0.0403146651823	 0.662383061499	 0.00338165668241	 48.0	 48.0	 48.0	 0.975	 0.0	 1	 -30.0	 30.0;
	2204	 2205	 0.00558545099989	 0.0156784778318	 0.00159407490014	 121.0	 121.0	 121.0	 0.0	 0.0	 1	 -30.0	 30.0;
	2204	 2206	 0.00602572363934	 0.0149021955481	 0.00166519321861	 112.0	 112.0	 112.0	 0.0	 0.0	 1	 -30.0	 30.0;
	2205	 2209	 0.0228305687675	 0.0637682046211	 0.0062292029036	 121.0	 121.0	 121.0	 0.0	 0.0	 1	 -30.0	 30.0;
	2206	 2207	 0.0467533231498	 0.0446517925232	 0.00376175498135	 63.0	 63.0	 63.0	 0.0	 0.0	 1	 -30.0	 30.0;
	2207	 2209	 0.0719883445637	 0.0611633198984	 0.00469509414377	 59.0	 59.0	 59.0	 0.0	 0.0	 1	 -30.0	 30.0;
	2209	 2237	 0.0348107242369	 0.0508604577199	 0.00524508606407	 82.0	 82.0	 82.0	 0.0	 0.0	 1	 -30.0	 30.0;
	2210	 2237	 0.00326963631808	 0.0145342492605	 0.00145874859141	 160.0	 160.0	 160.0	 0.0	 0.0	 1	 -30.0	 30.0;
	2190	 2323	 0.137691854046	 0.279441697138	 0.0236720724191	 99.0	 99.0	 99.0	 0.0	 0.0	 1	 -30.0	 30.0;
	2214	 2220	 0.00546403750034	 0.017164896468	 0.00589143396744	 130.0	 130.0	 130.0	 0.0	 0.0	 1	 -30.0	 30.0;
	2214	 2220	 0.00364758650599	 0.0286067479688	 0.000414263237175	 226.0	 226.0	 226.0	 0.0	 0.0	 1	 -30.0	 30.0;
	2215	 2219	 0.00467363200054	 0.0184289919588	 0.00245152692877	 149.0	 149.0	 149.0	 0.0	 0.0	 1	 -30.0	 30.0;
	2219	 2141	 0.0084303609162	 0.195196638009	 0.0023718655271	 162.0	 162.0	 162.0	 1.04545454545	 0.0	 1	 -30.0	 30.0;
	2217	 2219	 0.0383996458529	 0.156477061172	 0.0190922336807	 152.0	 152.0	 152.0	 0.0	 0.0	 1	 -30.0	 30.0;
	2219	 2137	 1.20097991941	 4.03610643111	 0.00927586424873	 8.0	 8.0	 8.0	 1.03147	 0.0	 1	 -30.0	 30.0;
	2219	 2220	 0.044756923605	 0.128900385602	 0.0126673048162	 123.0	 123.0	 123.0	 0.0	 0.0	 1	 -30.0	 30.0;
	2219	 2220	 0.0424748956083	 0.118662413239	 0.0120168671481	 121.0	 121.0	 121.0	 0.0	 0.0	 1	 -30.0	 30.0;
	2219	 2222	 0.149471301929	 0.242838080968	 0.0196033250698	 87.0	 87.0	 87.0	 0.0	 0.0	 1	 -30.0	 30.0;
	2220	 2224	 0.00517821364049	 0.0257469512591	 0.00295509923136	 171.0	 171.0	 171.0	 0.0	 0.0	 1	 -30.0	 30.0;
	2220	 2224	 0.00513029103585	 0.0261527031624	 0.00319174829688	 174.0	 174.0	 174.0	 0.0	 0.0	 1	 -30.0	 30.0;
	2222	 2231	 0.107316122925	 0.163455119482	 0.0146145668121	 84.0	 84.0	 84.0	 0.0	 0.0	 1	 -30.0	 30.0;
	2223	 2225	 0.000985301995251	 0.00880158392307	 0.0366018740284	 244.0	 244.0	 244.0	 0.0	 0.0	 1	 -30.0	 30.0;
	2223	 2214	 0.00159105404253	 0.0147080881206	 0.0439284534166	 249.0	 249.0	 249.0	 0.0	 0.0	 1	 -30.0	 30.0;
	2239	 2243	 0.00360884330953	 0.0272013538646	 0.052577014936	 440.0	 440.0	 440.0	 0.0	 0.0	 1	 -30.0	 30.0;
	2240	 2243	 0.00368515181838	 0.02729184471	 0.0542524999439	 435.0	 435.0	 435.0	 0.0	 0.0	 1	 -30.0	 30.0;
	2241	 2243	 0.00172089511687	 0.0135833580207	 0.0253619957311	 453.0	 453.0	 453.0	 0.0	 0.0	 1	 -30.0	 30.0;
	2242	 2243	 0.00516263196069	 0.0401278502407	 0.0723725984573	 448.0	 448.0	 448.0	 0.0	 0.0	 1	 -30.0	 30.0;
	2243	 2249	 0.00871177811824	 0.0675740885568	 0.121383383133	 448.0	 448.0	 448.0	 0.0	 0.0	 1	 -30.0	 30.0;
	2243	 2249	 0.00802602507801	 0.0674731232691	 0.117713203229	 470.0	 470.0	 470.0	 0.0	 0.0	 1	 -30.0	 30.0;
	2244	 2249	 0.00683352590427	 0.0387733328807	 0.0597080006736	 370.0	 370.0	 370.0	 0.0	 0.0	 1	 -30.0	 30.0;
	2249	 2329	 0.0133455107097	 0.200680514427	 0.0495893101978	 158.0	 158.0	 158.0	 1.0681	 0.0	 1	 -30.0	 30.0;
	2247	 2249	 0.00383756139899	 0.0192588914578	 0.0348010960884	 344.0	 344.0	 344.0	 0.0	 0.0	 1	 -30.0	 30.0;
	2249	 2164	 0.0116068776357	 0.140779613029	 0.0633475515843	 224.0	 224.0	 224.0	 1.01131	 0.0	 1	 -30.0	 30.0;
	2249	 2250	 0.00791666807699	 0.0572760613928	 0.0898752712113	 429.0	 429.0	 429.0	 0.0	 0.0	 1	 -30.0	 30.0;
	2249	 2250	 0.0082603860242	 0.0566848080727	 0.0913350015336	 416.0	 416.0	 416.0	 0.0	 0.0	 1	 -30.0	 30.0;
	2249	 2269	 0.01493876248	 0.0704094566506	 0.106127778136	 331.0	 331.0	 331.0	 0.0	 0.0	 1	 -30.0	 30.0;
	2250	 2270	 0.00936215698306	 0.0406372266676	 0.0710654132142	 315.0	 315.0	 315.0	 0.0	 0.0	 1	 -30.0	 30.0;
	2250	 2270	 0.0095308059707	 0.0437176421909	 0.0702173933262	 326.0	 326.0	 326.0	 0.0	 0.0	 1	 -30.0	 30.0;
	2255	 2259	 0.00424138476648	 0.0205666269986	 0.0301809285452	 337.0	 337.0	 337.0	 0.0	 0.0	 1	 -30.0	 30.0;
	2255	 2262	 0.0164515101986	 0.0682358937425	 0.113282979366	 306.0	 306.0	 306.0	 0.0	 0.0	 1	 -30.0	 30.0;
	2255	 2268	 0.00655462548103	 0.0304432815257	 0.0426581844655	 328.0	 328.0	 328.0	 0.0	 0.0	 1	 -30.0	 30.0;
	2255	 2268	 0.00343435743288	 0.0259922985119	 0.0477408341363	 441.0	 441.0	 441.0	 0.0	 0.0	 1	 -30.0	 30.0;
	2259	 2262	 0.0110675164723	 0.0520011691326	 0.0856549351765	 330.0	 330.0	 330.0	 0.0	 0.0	 1	 -30.0	 30.0;
	2261	 2262	 0.0132215266532	 0.0893400032262	 0.157666756027	 412.0	 412.0	 412.0	 0.0	 0.0	 1	 -30.0	 30.0;
	2261	 2262	 0.0145171332656	 0.0938426300478	 0.168644954841	 401.0	 401.0	 401.0	 0.0	 0.0	 1	 -30.0	 30.0;
	2263	 2268	 0.0131560796875	 0.0824582268278	 0.142504390296	 393.0	 393.0	 393.0	 0.0	 0.0	 1	 -30.0	 30.0;
	2263	 2268	 0.0129197396137	 0.0796015323961	 0.14335068766	 389.0	 389.0	 389.0	 0.0	 0.0	 1	 -30.0	 30.0;
	2269	 2142	 0.00534979214151	 0.182977587129	 0.00877871706562	 173.0	 173.0	 173.0	 1.0681	 0.0	 1	 -30.0	 30.0;
	2269	 2144	 0.0055291704363	 0.184715234765	 0.00860378797939	 171.0	 171.0	 171.0	 1.0681	 0.0	 1	 -30.0	 30.0;
	2269	 2145	 0.00616940694479	 0.175450423586	 0.00893260457992	 180.0	 180.0	 180.0	 1.0681	 0.0	 1	 -30.0	 30.0;
	2268	 2269	 0.00471877332513	 0.0376735130684	 0.0714420340517	 456.0	 456.0	 456.0	 0.0	 0.0	 1	 -30.0	 30.0;
	2268	 2269	 0.00464160583745	 0.0377672696763	 0.0658089057264	 461.0	 461.0	 461.0	 0.0	 0.0	 1	 -30.0	 30.0;
	2269	 2270	 0.00596531706803	 0.0270741644934	 0.0483460714225	 323.0	 323.0	 323.0	 0.0	 0.0	 1	 -30.0	 30.0;
	2269	 2270	 0.00619035982258	 0.0279026709165	 0.0490064073603	 322.0	 322.0	 322.0	 0.0	 0.0	 1	 -30.0	 30.0;
	2315	 2320	 0.0378443095275	 0.0565518260573	 0.00156248425743	 17.0	 17.0	 17.0	 0.0	 0.0	 1	 -30.0	 30.0;
	2315	 2320	 0.0390479045201	 0.0570860607866	 0.00166782256778	 17.0	 17.0	 17.0	 0.0	 0.0	 1	 -30.0	 30.0;
	2140	 2215	 0.00325528849623	 0.177605506471	 -5e-07	 178.0	 178.0	 178.0	 0.95652173913	 0.0	 1	 -30.0	 30.0;
	2146	 2319	 0.00953248890599	 0.0976791594336	 -5e-07	 322.0	 322.0	 322.0	 1.01449275362	 0.0	 1	 -30.0	 30.0;
	2147	 2148	 0.0106288813461	 0.117680721349	 -5e-07	 268.0	 268.0	 268.0	 0.959595959596	 0.0	 1	 -30.0	 30.0;
	2112	 2149	 0.019511938914	 0.386358596284	 -5e-07	 82.0	 82.0	 82.0	 0.975	 0.0	 1	 -30.0	 30.0;
	2112	 2150	 0.0186132788376	 0.369193720572	 -5e-07	 86.0	 86.0	 86.0	 0.975	 0.0	 1	 -30.0	 30.0;
	2153	 2279	 0.0227478390924	 0.552189815384	 -5e-07	 58.0	 58.0	 58.0	 0.9875	 0.0	 1	 -30.0	 30.0;
	2153	 2279	 0.0222802043221	 0.535390184378	 -5e-07	 59.0	 59.0	 59.0	 0.9875	 0.0	 1	 -30.0	 30.0;
	2155	 2280	 0.0195879369143	 0.50262311179	 -5e-07	 63.0	 63.0	 63.0	 1.01154	 0.0	 1	 -30.0	 30.0;
	2155	 2280	 0.0135180096767	 0.495316724224	 -5e-07	 64.0	 64.0	 64.0	 1.0116	 0.0	 1	 -30.0	 30.0;
	2155	 2281	 0.0577339991314	 0.950869187511	 -5e-07	 34.0	 34.0	 34.0	 1.0454	 0.0	 1	 -30.0	 30.0;
	2155	 2281	 0.055209133621	 0.933929222836	 -5e-07	 34.0	 34.0	 34.0	 1.0454	 0.0	 1	 -30.0	 30.0;
	2157	 2282	 0.03425957737	 0.575543100686	 -5e-07	 55.0	 55.0	 55.0	 1.0	 0.0	 1	 -30.0	 30.0;
	2158	 2283	 0.110024274839	 1.33068123553	 -5e-07	 24.0	 24.0	 24.0	 0.976	 0.0	 1	 -30.0	 30.0;
	2158	 2284	 0.080509125714	 1.1480548445	 -5e-07	 28.0	 28.0	 28.0	 1.0	 0.0	 1	 -30.0	 30.0;
	2161	 2119	 0.00732376687037	 0.226450992076	 -5e-07	 140.0	 140.0	 140.0	 1.0773	 0.0	 1	 -30.0	 30.0;
	2162	 2285	 0.0142223943406	 0.486981815144	 -5e-07	 65.0	 65.0	 65.0	 1.0	 0.0	 1	 -30.0	 30.0;
	2162	 2285	 0.0141277478943	 0.474006876834	 -5e-07	 67.0	 67.0	 67.0	 1.0	 0.0	 1	 -30.0	 30.0;
	2163	 2286	 0.0254684135815	 0.384457039646	 -5e-07	 82.0	 82.0	 82.0	 0.9875	 0.0	 1	 -30.0	 30.0;
	2163	 2286	 0.0269802282587	 0.405389597159	 -5e-07	 78.0	 78.0	 78.0	 0.975	 0.0	 1	 -30.0	 30.0;
	2164	 2287	 0.0131461361513	 0.323965155563	 -5e-07	 98.0	 98.0	 98.0	 1.01362	 0.0	 1	 -30.0	 30.0;
	2164	 2287	 0.0128083302407	 0.31119278951	 -5e-07	 102.0	 102.0	 102.0	 1.01362	 0.0	 1	 -30.0	 30.0;
	2165	 2288	 0.0191450692851	 0.571359644646	 -5e-07	 56.0	 56.0	 56.0	 1.0125	 0.0	 1	 -30.0	 30.0;
	2165	 2288	 0.0198637862496	 0.613492127221	 -5e-07	 52.0	 52.0	 52.0	 1.0125	 0.0	 1	 -30.0	 30.0;
	2167	 2289	 0.01429953662	 0.445263153061	 -5e-07	 71.0	 71.0	 71.0	 0.98636	 0.0	 1	 -30.0	 30.0;
	2167	 2289	 0.0138235162498	 0.54509641662	 -5e-07	 58.0	 58.0	 58.0	 0.98636	 0.0	 1	 -30.0	 30.0;
	2168	 2290	 0.0196101853489	 0.500290354249	 -5e-07	 64.0	 64.0	 64.0	 0.975	 0.0	 1	 -30.0	 30.0;
	2168	 2290	 0.0183435195747	 0.487525330807	 -5e-07	 65.0	 65.0	 65.0	 0.975	 0.0	 1	 -30.0	 30.0;
	2168	 2290	 0.0143708840273	 0.533604117352	 -5e-07	 60.0	 60.0	 60.0	 0.975	 0.0	 1	 -30.0	 30.0;
	2169	 2272	 0.0290935180671	 0.625318664805	 -5e-07	 51.0	 51.0	 51.0	 1.0	 0.0	 1	 -30.0	 30.0;
	2169	 2272	 0.0295133979923	 0.592716803482	 -5e-07	 54.0	 54.0	 54.0	 0.975	 0.0	 1	 -30.0	 30.0;
	2170	 2291	 0.0133025353251	 0.508686917432	 -5e-07	 63.0	 63.0	 63.0	 0.9625	 0.0	 1	 -30.0	 30.0;
	2170	 2291	 0.0134689722667	 0.515581078614	 -5e-07	 62.0	 62.0	 62.0	 0.9625	 0.0	 1	 -30.0	 30.0;
	2171	 2273	 0.0262331016249	 0.386089733051	 -5e-07	 82.0	 82.0	 82.0	 0.9625	 0.0	 1	 -30.0	 30.0;
	2171	 2273	 0.0276127085623	 0.416311396601	 -5e-07	 76.0	 76.0	 76.0	 0.9625	 0.0	 1	 -30.0	 30.0;
	2173	 2292	 0.0294456702587	 0.607578981626	 -5e-07	 52.0	 52.0	 52.0	 1.02556	 0.0	 1	 -30.0	 30.0;
	2173	 2292	 0.00775979971026	 0.512117724958	 -5e-07	 62.0	 62.0	 62.0	 1.02556	 0.0	 1	 -30.0	 30.0;
	2177	 2293	 0.011936535418	 0.268125728637	 -5e-07	 118.0	 118.0	 118.0	 1.0	 0.0	 1	 -30.0	 30.0;
	2177	 2293	 0.0115782059556	 0.248462669683	 -5e-07	 127.0	 127.0	 127.0	 1.0	 0.0	 1	 -30.0	 30.0;
	2178	 2294	 0.059707829617	 0.909811163372	 -5e-07	 35.0	 35.0	 35.0	 1.0495	 0.0	 1	 -30.0	 30.0;
	2127	 2323	 0.00552488081702	 0.204241359352	 0.000999194216205	 155.0	 155.0	 155.0	 1.0	 0.0	 1	 -30.0	 30.0;
	2128	 2323	 0.00561112386908	 0.2129076695	 8.82184142992e-05	 149.0	 149.0	 149.0	 1.0	 0.0	 1	 -30.0	 30.0;
	2186	 2133	 0.00843763616704	 0.200659136226	 -5e-07	 158.0	 158.0	 158.0	 1.04545	 0.0	 1	 -30.0	 30.0;
	2186	 2296	 0.0213060678714	 0.514579037362	 -5e-07	 62.0	 62.0	 62.0	 0.964	 0.0	 1	 -30.0	 30.0;
	2189	 2297	 0.123067366613	 1.52533411147	 -5e-07	 21.0	 21.0	 21.0	 1.0	 0.0	 1	 -30.0	 30.0;
	2190	 2274	 0.0290235147771	 0.636134454327	 -5e-07	 50.0	 50.0	 50.0	 1.0	 0.0	 1	 -30.0	 30.0;
	2190	 2274	 0.0214868049498	 0.645020761556	 -5e-07	 49.0	 49.0	 49.0	 1.0	 0.0	 1	 -30.0	 30.0;
	2192	 2298	 0.0281615511754	 0.625461483213	 -5e-07	 51.0	 51.0	 51.0	 1.01222	 0.0	 1	 -30.0	 30.0;
	2192	 2299	 0.0201050772011	 0.66240904637	 -5e-07	 48.0	 48.0	 48.0	 1.01222	 0.0	 1	 -30.0	 30.0;
	2194	 2336	 0.0067513101057	 0.305115034068	 -5e-07	 104.0	 104.0	 104.0	 1.0125	 0.0	 1	 -30.0	 30.0;
	2194	 2336	 0.00706588606525	 0.298336804449	 -5e-07	 106.0	 106.0	 106.0	 1.0125	 0.0	 1	 -30.0	 30.0;
	2194	 2336	 0.00719841202807	 0.297849430831	 -5e-07	 107.0	 107.0	 107.0	 1.0125	 0.0	 1	 -30.0	 30.0;
	2195	 2277	 0.00700402279582	 0.422563517086	 -5e-07	 75.0	 75.0	 75.0	 0.97724	 0.0	 1	 -30.0	 30.0;
	2195	 2277	 0.00683364557676	 0.392629356985	 -5e-07	 81.0	 81.0	 81.0	 0.97724	 0.0	 1	 -30.0	 30.0;
	2195	 2277	 0.00695451949928	 0.386758330225	 -5e-07	 82.0	 82.0	 82.0	 0.97724	 0.0	 1	 -30.0	 30.0;
	2195	 2324	 9.99999996566e-10	 0.101220519969	 -5e-07	 313.0	 313.0	 313.0	 0.97578	 0.0	 1	 -30.0	 30.0;
	2195	 2325	 9.9999998929e-10	 0.0966365380293	 -5e-07	 327.0	 327.0	 327.0	 0.97578	 0.0	 1	 -30.0	 30.0;
	2195	 2326	 9.99999996566e-10	 0.101442471846	 -5e-07	 312.0	 312.0	 312.0	 0.97578	 0.0	 1	 -30.0	 30.0;
	2198	 2278	 0.0155874284169	 0.400714549992	 -5e-07	 79.0	 79.0	 79.0	 1.0	 0.0	 1	 -30.0	 30.0;
	2198	 2278	 0.0153935580371	 0.388070154157	 -5e-07	 82.0	 82.0	 82.0	 1.0	 0.0	 1	 -30.0	 30.0;
	2200	 2304	 0.0215926686041	 0.691785922603	 -5e-07	 46.0	 46.0	 46.0	 1.0	 0.0	 1	 -30.0	 30.0;
	2201	 2305	 0.0225065820379	 0.665433695637	 -5e-07	 48.0	 48.0	 48.0	 1.0	 0.0	 1	 -30.0	 30.0;
	2202	 2306	 0.0195789341514	 0.545847475992	 -5e-07	 58.0	 58.0	 58.0	 1.0	 0.0	 1	 -30.0	 30.0;
	2202	 2307	 0.020011691177	 0.511415508905	 -5e-07	 62.0	 62.0	 62.0	 1.0	 0.0	 1	 -30.0	 30.0;
	2204	 2199	 0.0160470386159	 0.382427686219	 -5e-07	 83.0	 83.0	 83.0	 0.93172	 0.0	 1	 -30.0	 30.0;
	2204	 2199	 0.0167784369264	 0.381690919358	 -5e-07	 83.0	 83.0	 83.0	 0.93172	 0.0	 1	 -30.0	 30.0;
	2204	 2308	 0.0213258953499	 0.689187095127	 -5e-07	 46.0	 46.0	 46.0	 1.0	 0.0	 1	 -30.0	 30.0;
	2204	 2309	 0.0218493033981	 0.643070689127	 -5e-07	 50.0	 50.0	 50.0	 0.98778	 0.0	 1	 -30.0	 30.0;
	2207	 2310	 0.0214628861182	 0.485476874372	 -5e-07	 66.0	 66.0	 66.0	 1.0	 0.0	 1	 -30.0	 30.0;
	2207	 2310	 0.0211668452803	 0.474653195433	 -5e-07	 67.0	 67.0	 67.0	 1.0	 0.0	 1	 -30.0	 30.0;
	2208	 2311	 0.0404404426658	 0.796594669873	 -5e-07	 40.0	 40.0	 40.0	 0.9625	 0.0	 1	 -30.0	 30.0;
	2209	 2311	 0.0383170167085	 0.869999160803	 -5e-07	 37.0	 37.0	 37.0	 0.975	 0.0	 1	 -30.0	 30.0;
	2210	 2312	 0.0539738688496	 0.996106503408	 -5e-07	 32.0	 32.0	 32.0	 1.0	 0.0	 1	 -30.0	 30.0;
	2210	 2312	 0.0566573101837	 1.00148666329	 -5e-07	 32.0	 32.0	 32.0	 1.0	 0.0	 1	 -30.0	 30.0;
	2212	 2313	 0.0281873795681	 0.64618776925	 -5e-07	 49.0	 49.0	 49.0	 0.975	 0.0	 1	 -30.0	 30.0;
	2190	 2314	 0.0169546861145	 0.624685969925	 -5e-07	 51.0	 51.0	 51.0	 1.0	 0.0	 1	 -30.0	 30.0;
	2190	 2314	 0.0161417475118	 0.627529661737	 -5e-07	 51.0	 51.0	 51.0	 1.0	 0.0	 1	 -30.0	 30.0;
	2214	 2138	 9.9999998929e-10	 0.1898516919	 -5e-07	 167.0	 167.0	 167.0	 0.98818	 0.0	 1	 -30.0	 30.0;
	2214	 2139	 1.00000000384e-09	 0.175186275393	 -5e-07	 181.0	 181.0	 181.0	 0.98818	 0.0	 1	 -30.0	 30.0;
	2214	 2315	 0.00883536152431	 0.504799750417	 -5e-07	 63.0	 63.0	 63.0	 1.01278	 0.0	 1	 -30.0	 30.0;
	2214	 2315	 0.00922483153379	 0.496381389837	 -5e-07	 64.0	 64.0	 64.0	 1.01278	 0.0	 1	 -30.0	 30.0;
	2214	 2315	 0.00889767753646	 0.504412578878	 -5e-07	 63.0	 63.0	 63.0	 1.01278	 0.0	 1	 -30.0	 30.0;
...
];

% INFO    : === Translation Options ===
% INFO    : Phase Angle Bound:           30.0 (deg.)
% INFO    : Setting Flat Start
% INFO    : 
% INFO    : === Generator Bounds Update Notes ===
% INFO    : 
% INFO    : === Base KV Replacement Notes ===
% INFO    : 
% INFO    : === Transformer Setting Replacement Notes ===
% INFO    : 
% INFO    : === Line Capacity Monotonicity Notes ===
% INFO    : 
% INFO    : === Voltage Setpoint Replacement Notes ===
% INFO    : Bus 2112	: V=0.989271049648, theta=-16.2130072663 -> V=1.0, theta=0.0
% INFO    : Bus 2114	: V=0.98803, theta=-9.48905815324 -> V=1.0, theta=0.0
% INFO    : Bus 2115	: V=0.98282, theta=-9.47504807485 -> V=1.0, theta=0.0
% INFO    : Bus 2116	: V=0.9882, theta=-8.41596206661 -> V=1.0, theta=0.0
% INFO    : Bus 2117	: V=1.05511, theta=-15.2058456884 -> V=1.0, theta=0.0
% INFO    : Bus 2118	: V=0.98159, theta=-21.2488975664 -> V=1.0, theta=0.0
% INFO    : Bus 2119	: V=0.94727, theta=-23.1202965606 -> V=1.0, theta=0.0
% INFO    : Bus 2120	: V=0.986754013876, theta=-25.7725243698 -> V=1.0, theta=0.0
% INFO    : Bus 2121	: V=0.987316244413, theta=-25.9740611234 -> V=1.0, theta=0.0
% INFO    : Bus 2122	: V=0.987316244413, theta=-25.9740611234 -> V=1.0, theta=0.0
% INFO    : Bus 2123	: V=0.99307, theta=-19.5071012688 -> V=1.0, theta=0.0
% INFO    : Bus 2124	: V=1.05574, theta=-19.3509724203 -> V=1.0, theta=0.0
% INFO    : Bus 2125	: V=1.05271, theta=-19.8421630487 -> V=1.0, theta=0.0
% INFO    : Bus 2126	: V=1.05495, theta=-5.95706876141 -> V=1.0, theta=0.0
% INFO    : Bus 2127	: V=1.04821, theta=-5.97390143806 -> V=1.0, theta=0.0
% INFO    : Bus 2128	: V=1.05035, theta=-6.11774719832 -> V=1.0, theta=0.0
% INFO    : Bus 2129	: V=1.00571, theta=-4.95638809648 -> V=1.0, theta=0.0
% INFO    : Bus 2130	: V=1.0064, theta=-5.16358051023 -> V=1.0, theta=0.0
% INFO    : Bus 2131	: V=1.00365, theta=-5.13210640947 -> V=1.0, theta=0.0
% INFO    : Bus 2132	: V=1.03199, theta=-8.50321338916 -> V=1.0, theta=0.0
% INFO    : Bus 2133	: V=0.96138, theta=-7.33078421586 -> V=1.0, theta=0.0
% INFO    : Bus 2134	: V=0.95645, theta=1.38362934006 -> V=1.0, theta=0.0
% INFO    : Bus 2135	: V=0.9564, theta=1.48456205091 -> V=1.0, theta=0.0
% INFO    : Bus 2136	: V=0.9492, theta=-2.56606461441e-12 -> V=1.0, theta=0.0
% INFO    : Bus 2137	: V=0.99892845584, theta=-17.1757613138 -> V=1.0, theta=0.0
% INFO    : Bus 2138	: V=1.02356, theta=-17.0693226962 -> V=1.0, theta=0.0
% INFO    : Bus 2139	: V=1.01721, theta=-18.2516958499 -> V=1.0, theta=0.0
% INFO    : Bus 2140	: V=0.98842, theta=-11.5268452879 -> V=1.0, theta=0.0
% INFO    : Bus 2141	: V=0.985102712702, theta=-17.1605584377 -> V=1.0, theta=0.0
% INFO    : Bus 2142	: V=0.98837, theta=-12.2609928235 -> V=1.0, theta=0.0
% INFO    : Bus 2143	: V=0.98685, theta=-12.3047147146 -> V=1.0, theta=0.0
% INFO    : Bus 2144	: V=0.98994, theta=-11.8096831581 -> V=1.0, theta=0.0
% INFO    : Bus 2145	: V=0.981453716364, theta=-18.0579412315 -> V=1.0, theta=0.0
% INFO    : Bus 2146	: V=1.04580640995, theta=-22.628850275 -> V=1.0, theta=0.0
% INFO    : Bus 2147	: V=1.02915741249, theta=-23.2771879787 -> V=1.0, theta=0.0
% INFO    : Bus 2148	: V=1.07274, theta=-22.8392196122 -> V=1.0, theta=0.0
% INFO    : Bus 2149	: V=0.991776623233, theta=-16.1505786545 -> V=1.0, theta=0.0
% INFO    : Bus 2150	: V=0.991543400362, theta=-16.150020526 -> V=1.0, theta=0.0
% INFO    : Bus 2152	: V=1.03221795188, theta=-18.6228321142 -> V=1.0, theta=0.0
% INFO    : Bus 2153	: V=1.02963844569, theta=-18.7144310876 -> V=1.0, theta=0.0
% INFO    : Bus 2155	: V=1.02935876674, theta=-18.5348102209 -> V=1.0, theta=0.0
% INFO    : Bus 2156	: V=1.03214348247, theta=-18.621902474 -> V=1.0, theta=0.0
% INFO    : Bus 2157	: V=1.02460722453, theta=-19.3928389101 -> V=1.0, theta=0.0
% INFO    : Bus 2158	: V=1.02808001592, theta=-18.8042442753 -> V=1.0, theta=0.0
% INFO    : Bus 2160	: V=1.03023914843, theta=-23.2515527856 -> V=1.0, theta=0.0
% INFO    : Bus 2161	: V=1.02989791632, theta=-23.4318818327 -> V=1.0, theta=0.0
% INFO    : Bus 2162	: V=1.02734263532, theta=-24.6835617034 -> V=1.0, theta=0.0
% INFO    : Bus 2163	: V=1.02549226757, theta=-24.8568216547 -> V=1.0, theta=0.0
% INFO    : Bus 2164	: V=1.03812366692, theta=-24.2209971089 -> V=1.0, theta=0.0
% INFO    : Bus 2165	: V=1.03697866908, theta=-24.2152611833 -> V=1.0, theta=0.0
% INFO    : Bus 2166	: V=1.0302264649, theta=-23.2514488663 -> V=1.0, theta=0.0
% INFO    : Bus 2167	: V=1.03071687329, theta=-23.9689877293 -> V=1.0, theta=0.0
% INFO    : Bus 2168	: V=1.02316426009, theta=-23.8779421422 -> V=1.0, theta=0.0
% INFO    : Bus 2169	: V=1.02561127732, theta=-23.7091291668 -> V=1.0, theta=0.0
% INFO    : Bus 2170	: V=1.02623213415, theta=-23.5580231308 -> V=1.0, theta=0.0
% INFO    : Bus 2171	: V=1.0054221924, theta=-21.0892199792 -> V=1.0, theta=0.0
% INFO    : Bus 2172	: V=1.01559117862, theta=-20.2824307267 -> V=1.0, theta=0.0
% INFO    : Bus 2173	: V=1.03219076326, theta=-25.9740447921 -> V=1.0, theta=0.0
% INFO    : Bus 2174	: V=1.02946648201, theta=-26.2385086645 -> V=1.0, theta=0.0
% INFO    : Bus 2175	: V=1.02864107358, theta=-26.3877834697 -> V=1.0, theta=0.0
% INFO    : Bus 2176	: V=1.01803202221, theta=-19.176672197 -> V=1.0, theta=0.0
% INFO    : Bus 2177	: V=1.01727501717, theta=-19.2936585698 -> V=1.0, theta=0.0
% INFO    : Bus 2178	: V=1.02089686714, theta=-18.4416845579 -> V=1.0, theta=0.0
% INFO    : Bus 2180	: V=1.05210497595, theta=-9.44169558947 -> V=1.0, theta=0.0
% INFO    : Bus 2183	: V=1.04441884517, theta=-10.946294389 -> V=1.0, theta=0.0
% INFO    : Bus 2186	: V=1.02615968379, theta=-11.5715478564 -> V=1.0, theta=0.0
% INFO    : Bus 2189	: V=1.05230714767, theta=-9.45344242084 -> V=1.0, theta=0.0
% INFO    : Bus 2190	: V=1.02138989751, theta=-13.3356783172 -> V=1.0, theta=0.0
% INFO    : Bus 2192	: V=1.02363142855, theta=-14.5754796389 -> V=1.0, theta=0.0
% INFO    : Bus 2193	: V=1.02583357097, theta=-14.0154104641 -> V=1.0, theta=0.0
% INFO    : Bus 2194	: V=1.02465376708, theta=-14.2633902284 -> V=1.0, theta=0.0
% INFO    : Bus 2195	: V=1.02293530695, theta=-14.7781367161 -> V=1.0, theta=0.0
% INFO    : Bus 2198	: V=1.02242684292, theta=-14.9249959133 -> V=1.0, theta=0.0
% INFO    : Bus 2199	: V=1.09432439919, theta=-14.7989557129 -> V=1.0, theta=0.0
% INFO    : Bus 2200	: V=1.02199407187, theta=-15.0515403905 -> V=1.0, theta=0.0
% INFO    : Bus 2201	: V=1.02193872839, theta=-15.0512715619 -> V=1.0, theta=0.0
% INFO    : Bus 2202	: V=1.0172684774, theta=-15.4498771878 -> V=1.0, theta=0.0
% INFO    : Bus 2203	: V=1.02150477183, theta=-15.1463801672 -> V=1.0, theta=0.0
% INFO    : Bus 2204	: V=1.02178190502, theta=-14.4261663702 -> V=1.0, theta=0.0
% INFO    : Bus 2205	: V=1.02186613694, theta=-14.3813778944 -> V=1.0, theta=0.0
% INFO    : Bus 2206	: V=1.02241646449, theta=-14.3862573666 -> V=1.0, theta=0.0
% INFO    : Bus 2207	: V=1.01852618488, theta=-14.5753394552 -> V=1.0, theta=0.0
% INFO    : Bus 2208	: V=0.966001571133, theta=-20.045162829 -> V=1.0, theta=0.0
% INFO    : Bus 2209	: V=1.01618582481, theta=-14.7193378082 -> V=1.0, theta=0.0
% INFO    : Bus 2210	: V=1.0142969917, theta=-14.8369359974 -> V=1.0, theta=0.0
% INFO    : Bus 2212	: V=1.02043669236, theta=-15.1789425111 -> V=1.0, theta=0.0
% INFO    : Bus 2214	: V=1.01476840001, theta=-19.7838254924 -> V=1.0, theta=0.0
% INFO    : Bus 2215	: V=1.03181041277, theta=-16.624709973 -> V=1.0, theta=0.0
% INFO    : Bus 2217	: V=1.03903727647, theta=-12.3619841189 -> V=1.0, theta=0.0
% INFO    : Bus 2219	: V=1.02985699162, theta=-17.1601981849 -> V=1.0, theta=0.0
% INFO    : Bus 2220	: V=1.01631743605, theta=-19.7243167817 -> V=1.0, theta=0.0
% INFO    : Bus 2221	: V=1.09933930446, theta=-22.7216009961 -> V=1.0, theta=0.0
% INFO    : Bus 2222	: V=1.01893794075, theta=-18.118648273 -> V=1.0, theta=0.0
% INFO    : Bus 2223	: V=1.01458429933, theta=-20.0003221474 -> V=1.0, theta=0.0
% INFO    : Bus 2224	: V=1.01623485173, theta=-19.7156126169 -> V=1.0, theta=0.0
% INFO    : Bus 2225	: V=1.01474774757, theta=-20.0013554129 -> V=1.0, theta=0.0
% INFO    : Bus 2226	: V=1.03759796106, theta=-24.2535844569 -> V=1.0, theta=0.0
% INFO    : Bus 2227	: V=1.01623455761, theta=-20.2959451533 -> V=1.0, theta=0.0
% INFO    : Bus 2228	: V=1.03221429925, theta=-25.9885495215 -> V=1.0, theta=0.0
% INFO    : Bus 2229	: V=1.03001017069, theta=-23.9595943307 -> V=1.0, theta=0.0
% INFO    : Bus 2231	: V=1.01452111682, theta=-18.672746154 -> V=1.0, theta=0.0
% INFO    : Bus 2232	: V=1.0220519474, theta=-15.0269562583 -> V=1.0, theta=0.0
% INFO    : Bus 2233	: V=1.02202516703, theta=-15.0225795524 -> V=1.0, theta=0.0
% INFO    : Bus 2234	: V=1.01990726599, theta=-16.3681740528 -> V=1.0, theta=0.0
% INFO    : Bus 2235	: V=1.02008195824, theta=-16.3639469039 -> V=1.0, theta=0.0
% INFO    : Bus 2237	: V=1.01457904846, theta=-14.8112719314 -> V=1.0, theta=0.0
% INFO    : Bus 2238	: V=1.02599832448, theta=-17.0772235419 -> V=1.0, theta=0.0
% INFO    : Bus 2239	: V=1.06373398719, theta=-15.8750693797 -> V=1.0, theta=0.0
% INFO    : Bus 2240	: V=1.06274755017, theta=-15.8477832429 -> V=1.0, theta=0.0
% INFO    : Bus 2241	: V=1.06014336894, theta=-16.7504580848 -> V=1.0, theta=0.0
% INFO    : Bus 2242	: V=1.06023553364, theta=-17.266211517 -> V=1.0, theta=0.0
% INFO    : Bus 2243	: V=1.05869637497, theta=-17.2554973436 -> V=1.0, theta=0.0
% INFO    : Bus 2244	: V=1.0519897658, theta=-20.2172246807 -> V=1.0, theta=0.0
% INFO    : Bus 2247	: V=1.04902061727, theta=-21.1665070168 -> V=1.0, theta=0.0
% INFO    : Bus 2249	: V=1.0483912402, theta=-21.1596547 -> V=1.0, theta=0.0
% INFO    : Bus 2250	: V=1.02967403737, theta=-24.7927650276 -> V=1.0, theta=0.0
% INFO    : Bus 2255	: V=1.0492486488, theta=-13.8548336234 -> V=1.0, theta=0.0
% INFO    : Bus 2259	: V=1.04945389482, theta=-13.0143549417 -> V=1.0, theta=0.0
% INFO    : Bus 2261	: V=1.04422560856, theta=-4.58558146104 -> V=1.0, theta=0.0
% INFO    : Bus 2262	: V=1.03857696176, theta=-11.7604186127 -> V=1.0, theta=0.0
% INFO    : Bus 2263	: V=1.05748207298, theta=-15.3015412727 -> V=1.0, theta=0.0
% INFO    : Bus 2268	: V=1.05078351694, theta=-15.6090040811 -> V=1.0, theta=0.0
% INFO    : Bus 2269	: V=1.04826701209, theta=-18.0576295878 -> V=1.0, theta=0.0
% INFO    : Bus 2270	: V=1.03846574234, theta=-20.5964855856 -> V=1.0, theta=0.0
% INFO    : Bus 2272	: V=1.03948985614, theta=-23.7250796249 -> V=1.0, theta=0.0
% INFO    : Bus 2273	: V=1.0320083394, theta=-23.1802047362 -> V=1.0, theta=0.0
% INFO    : Bus 2274	: V=0.98937701647, theta=-15.8521777471 -> V=1.0, theta=0.0
% INFO    : Bus 2275	: V=1.00031404035, theta=-14.7352872699 -> V=1.0, theta=0.0
% INFO    : Bus 2276	: V=1.00691304317, theta=-13.812310048 -> V=1.0, theta=0.0
% INFO    : Bus 2277	: V=1.02911383854, theta=-17.4775432395 -> V=1.0, theta=0.0
% INFO    : Bus 2278	: V=1.02051207889, theta=-16.58551466 -> V=1.0, theta=0.0
% INFO    : Bus 2279	: V=0.9898081629, theta=-22.8550864658 -> V=1.0, theta=0.0
% INFO    : Bus 2280	: V=1.01792206783, theta=-18.8521624017 -> V=1.0, theta=0.0
% INFO    : Bus 2281	: V=0.978261381189, theta=-17.0281787331 -> V=1.0, theta=0.0
% INFO    : Bus 2282	: V=1.02347827171, theta=-19.5769828758 -> V=1.0, theta=0.0
% INFO    : Bus 2283	: V=1.03794945206, theta=-20.7499210716 -> V=1.0, theta=0.0
% INFO    : Bus 2284	: V=1.02885192847, theta=-18.8710623173 -> V=1.0, theta=0.0
% INFO    : Bus 2285	: V=1.01264911028, theta=-26.6327390663 -> V=1.0, theta=0.0
% INFO    : Bus 2286	: V=1.03499527194, theta=-26.1648963915 -> V=1.0, theta=0.0
% INFO    : Bus 2287	: V=1.01306049507, theta=-27.0808424118 -> V=1.0, theta=0.0
% INFO    : Bus 2288	: V=1.01687446322, theta=-25.0116200642 -> V=1.0, theta=0.0
% INFO    : Bus 2289	: V=1.0384908057, theta=-25.4990250055 -> V=1.0, theta=0.0
% INFO    : Bus 2290	: V=1.02700331056, theta=-27.0166643672 -> V=1.0, theta=0.0
...